# generated using pymatgen
data_In3H6(C9O8)2
_symmetry_space_group_name_H-M   'P 1'
_cell_length_a   10.98344242
_cell_length_b   10.98344242
_cell_length_c   10.98344242
_cell_angle_alpha   78.85231434
_cell_angle_beta   78.85231434
_cell_angle_gamma   78.85231434
_symmetry_Int_Tables_number   1
_chemical_formula_structural   In3H6(C9O8)2
_chemical_formula_sum   'In3 H6 C18 O16'
_cell_volume   1258.61932367
_cell_formula_units_Z   1
loop_
 _symmetry_equiv_pos_site_id
 _symmetry_equiv_pos_as_xyz
  1  'x, y, z'
loop_
 _atom_site_type_symbol
 _atom_site_label
 _atom_site_symmetry_multiplicity
 _atom_site_fract_x
 _atom_site_fract_y
 _atom_site_fract_z
 _atom_site_occupancy
  C  C0  1  0.42010000  0.21410000  0.61420000  1
  C  C1  1  0.36520000  0.09520000  0.64730000  1
  C  C2  1  0.27370000  0.06270000  0.73380000  1
  C  C3  1  0.61420000  0.42010000  0.21410000  1
  C  C4  1  0.64730000  0.36520000  0.09520000  1
  C  C5  1  0.73380000  0.27370000  0.06270000  1
  C  C6  1  0.21410000  0.61420000  0.42010000  1
  C  C7  1  0.09520000  0.64730000  0.36520000  1
  C  C8  1  0.06270000  0.73380000  0.27370000  1
  C  C9  1  0.38580000  0.78590000  0.57990000  1
  C  C10  1  0.35270000  0.90480000  0.63480000  1
  C  C11  1  0.26620000  0.93730000  0.72630000  1
  C  C12  1  0.78590000  0.57990000  0.38580000  1
  C  C13  1  0.90480000  0.63480000  0.35270000  1
  C  C14  1  0.93730000  0.72630000  0.26620000  1
  C  C15  1  0.57990000  0.38580000  0.78590000  1
  C  C16  1  0.63480000  0.35270000  0.90480000  1
  C  C17  1  0.72630000  0.26620000  0.93730000  1
  H  H18  1  0.22300000  0.11210000  0.79000000  1
  H  H19  1  0.79000000  0.22300000  0.11210000  1
  H  H20  1  0.11210000  0.79000000  0.22300000  1
  H  H21  1  0.21000000  0.88790000  0.77700000  1
  H  H22  1  0.88790000  0.77700000  0.21000000  1
  H  H23  1  0.77700000  0.21000000  0.88790000  1
  In  In24  1  0.64629000  0.35371000  0.50000000  1
  In  In25  1  0.50000000  0.64629000  0.35371000  1
  In  In26  1  0.35371000  0.50000000  0.64629000  1
  O  O27  1  0.52360000  0.21390000  0.53610000  1
  O  O28  1  0.35820000  0.30050000  0.66860000  1
  O  O29  1  0.53610000  0.52360000  0.21390000  1
  O  O30  1  0.66860000  0.35820000  0.30050000  1
  O  O31  1  0.21390000  0.53610000  0.52360000  1
  O  O32  1  0.30050000  0.66860000  0.35820000  1
  O  O33  1  0.46390000  0.78610000  0.47640000  1
  O  O34  1  0.33140000  0.69950000  0.64180000  1
  O  O35  1  0.78610000  0.47640000  0.46390000  1
  O  O36  1  0.69950000  0.64180000  0.33140000  1
  O  O37  1  0.47640000  0.46390000  0.78610000  1
  O  O38  1  0.64180000  0.33140000  0.69950000  1
  O  O39  1  0.42150000  0.00000000  0.57850000  1
  O  O40  1  0.57850000  0.42150000  0.00000000  1
  O  O41  1  0.00000000  0.57850000  0.42150000  1
  O  O42  1  0.50000000  0.50000000  0.50000000  1
