# generated using pymatgen
data_SmH4(CO2)4
_symmetry_space_group_name_H-M   'P 1'
_cell_length_a   6.76680000
_cell_length_b   8.57170000
_cell_length_c   9.95222085
_cell_angle_alpha   90.00000000
_cell_angle_beta   109.87470030
_cell_angle_gamma   90.00000000
_symmetry_Int_Tables_number   1
_chemical_formula_structural   SmH4(CO2)4
_chemical_formula_sum   'Sm2 H8 C8 O16'
_cell_volume   542.87598704
_cell_formula_units_Z   2
loop_
 _symmetry_equiv_pos_site_id
 _symmetry_equiv_pos_as_xyz
  1  'x, y, z'
loop_
 _atom_site_type_symbol
 _atom_site_label
 _atom_site_symmetry_multiplicity
 _atom_site_fract_x
 _atom_site_fract_y
 _atom_site_fract_z
 _atom_site_occupancy
  C  C0  1  0.49089000  0.97230000  0.51498000  1
  C  C1  1  0.50911000  0.47230000  0.48502000  1
  C  C2  1  0.02409000  0.52770000  0.51498000  1
  C  C3  1  0.97591000  0.02770000  0.48502000  1
  C  C4  1  0.87629000  0.25000000  0.75258000  1
  C  C5  1  0.12371000  0.75000000  0.24742000  1
  C  C6  1  0.42770000  1.00000000  0.00000000  1
  C  C7  1  0.57230000  0.50000000  0.00000000  1
  H  H8  1  0.43010000  0.03980000  0.43900000  1
  H  H9  1  0.56990000  0.53980000  0.56100000  1
  H  H10  1  0.00890000  0.46020000  0.43900000  1
  H  H11  1  0.99110000  0.96020000  0.56100000  1
  H  H12  1  0.82660000  0.25000000  0.65320000  1
  H  H13  1  0.17340000  0.75000000  0.34680000  1
  H  H14  1  0.29020000  1.00000000  0.00000000  1
  H  H15  1  0.70980000  0.50000000  1.00000000  1
  O  O16  1  0.46665000  0.06730000  0.90190000  1
  O  O17  1  0.06929000  0.22960000  0.81318000  1
  O  O18  1  0.49415000  0.01560000  0.63410000  1
  O  O19  1  0.56108000  0.84720000  0.48696000  1
  O  O20  1  0.53335000  0.56730000  0.09810000  1
  O  O21  1  0.93071000  0.72960000  0.18682000  1
  O  O22  1  0.50585000  0.51560000  0.36590000  1
  O  O23  1  0.43892000  0.34720000  0.51304000  1
  O  O24  1  0.43525000  0.43270000  0.90190000  1
  O  O25  1  0.74389000  0.27040000  0.81318000  1
  O  O26  1  0.13995000  0.48440000  0.63410000  1
  O  O27  1  0.92588000  0.65280000  0.48696000  1
  O  O28  1  0.56475000  0.93270000  0.09810000  1
  O  O29  1  0.25611000  0.77040000  0.18682000  1
  O  O30  1  0.86005000  0.98440000  0.36590000  1
  O  O31  1  0.07412000  0.15280000  0.51304000  1
  Sm  Sm32  1  0.35750000  0.25000000  0.71500000  1
  Sm  Sm33  1  0.64250000  0.75000000  0.28500000  1
